@<TRIPOS>MOLECULE
*****
 11 11 0 0 0
SMALL
GASTEIGER

@<TRIPOS>ATOM
      1 N          -1.5719   -1.2962    1.3575 N.3     1  UNL1       -0.1159
      2 CA         -1.0783   -0.8167    0.0744 C.3     1  UNL1        0.2165
      3 C           0.3154   -0.2770    0.1268 C.ar    1  UNL1        0.0059
      4 C           1.2884   -0.8548   -0.6909 C.ar    1  UNL1       -0.0023
      5 C           2.5969   -0.3770   -0.6754 C.ar    1  UNL1       -0.0003
      6 C           2.9404    0.6838    0.1582 C.ar    1  UNL1       -0.0000
      7 C           1.9766    1.2670    0.9761 C.ar    1  UNL1       -0.0003
      8 C           0.6687    0.7883    0.9597 C.ar    1  UNL1       -0.0023
      9 C          -2.0900    0.1191   -0.5308 C.2     1  UNL1        0.3860
     10 O          -2.3635    1.2529   -0.1626 O.co2   1  UNL1       -0.2437
     11 OXT        -2.6826   -0.4893   -1.5930 O.co2   1  UNL1       -0.2437
@<TRIPOS>BOND
     1     2     1    1
     2     2     3    1
     3     3     4   ar
     4     4     5   ar
     5     5     6   ar
     6     6     7   ar
     7     7     8   ar
     8     2     9    1
     9     9    10   ar
    10     9    11   ar
    11     8     3   ar
